Version 4
SHEET 1 880 680
WIRE 48 256 16 256
WIRE 240 256 48 256
WIRE 320 256 240 256
WIRE 16 272 16 256
WIRE 320 272 320 256
WIRE 416 320 320 320
WIRE 240 352 240 256
WIRE 272 352 240 352
WIRE 320 400 320 368
WIRE 368 400 320 400
WIRE 416 400 416 320
WIRE 416 400 368 400
WIRE 320 416 320 400
WIRE 16 432 16 352
WIRE 320 528 320 496
FLAG 16 432 0
FLAG 48 256 in
FLAG 320 528 0
FLAG 368 400 out
SYMBOL nmos4 272 272 R0
SYMATTR InstName M1
SYMATTR Value TestN
SYMATTR Value2 l=10u w=10u
SYMBOL voltage 16 256 R0
WINDOW 123 0 0 Left 2
WINDOW 39 0 0 Left 2
SYMATTR InstName Vi
SYMATTR Value SINE(0 5 10)
SYMBOL res 304 400 R0
SYMATTR InstName R1
SYMATTR Value 100R
TEXT 48 24 Left 2 !.model TestN nmos (kp=90u vt0=0.7 lambda=0.01)\n.tran 1s
